<?xml version="1.0" encoding="UTF-8"?>

<!-- generated on 2025-11-24 13:31:05.283568 by Eclipse SUMO randomTrips.py v1_25_0+0000-ac6c5a6752d
<configuration>
    <net-file value="C:\Users\THUMMA JAHNAVI\.gemini\antigravity\scratch\sumo_config\network.net.xml"/>
    <route-file value="C:\Users\THUMMA JAHNAVI\.gemini\antigravity\scratch\sumo_config\traffic_dense.rou.xml"/>
    <vehicle-class value="passenger"/>
    <end value="500.0"/>
    <period value="0.5"/>
</configuration>
-->

<routes xmlns:xsi="http://www.w3.org/2001/XMLSchema-instance" xsi:noNamespaceSchemaLocation="http://sumo.dlr.de/xsd/routes_file.xsd">
    <vType id="passenger" vClass="passenger"/>
    <trip id="0" depart="0.00" from="134779346#0" to="-1157491520#0" type="passenger"/>
    <trip id="1" depart="0.50" from="-255924992#19" to="-206788480#1" type="passenger"/>
    <trip id="2" depart="1.00" from="206788541#3" to="134938595#3" type="passenger"/>
    <trip id="3" depart="1.50" from="593053213#3" to="-133360780#1" type="passenger"/>
    <trip id="4" depart="2.00" from="-66239967#2" to="-1194654533#0" type="passenger"/>
    <trip id="5" depart="2.50" from="-134923598#0" to="129119271#1" type="passenger"/>
    <trip id="6" depart="3.00" from="-1122575003#0" to="-155611933#0" type="passenger"/>
    <trip id="7" depart="3.50" from="134815531#6" to="133369429#8" type="passenger"/>
    <trip id="8" depart="4.00" from="-134927064#2" to="1338534553" type="passenger"/>
    <trip id="9" depart="4.50" from="30919046#27" to="-1046496425#17" type="passenger"/>
    <trip id="10" depart="5.00" from="30919042#14" to="206609431" type="passenger"/>
    <trip id="11" depart="5.50" from="-374788801#2" to="-134815567#2" type="passenger"/>
    <trip id="12" depart="6.00" from="742394390#2" to="-501949256" type="passenger"/>
    <trip id="13" depart="6.50" from="-133360769#7" to="-1338144743#0" type="passenger"/>
    <trip id="14" depart="7.00" from="438599601#3" to="133895492#0" type="passenger"/>
    <trip id="15" depart="7.50" from="30919042#8" to="22933592#5" type="passenger"/>
    <trip id="16" depart="8.00" from="129117412#0" to="914904189" type="passenger"/>
    <trip id="17" depart="8.50" from="-581494298#0" to="1337852634" type="passenger"/>
    <trip id="18" depart="9.00" from="374785140#3" to="134764500#3" type="passenger"/>
    <trip id="19" depart="9.50" from="501935238#1" to="1338513915#0" type="passenger"/>
    <trip id="20" depart="10.00" from="155629773#20" to="-1252508128#2" type="passenger"/>
    <trip id="21" depart="10.50" from="-146858685#0" to="-31232216#4" type="passenger"/>
    <trip id="22" depart="11.00" from="-131290312#11" to="-206788538#2" type="passenger"/>
    <trip id="23" depart="11.50" from="-1337850060" to="-29982696#2" type="passenger"/>
    <trip id="24" depart="12.00" from="134737655#0" to="-593359229#0" type="passenger"/>
    <trip id="25" depart="12.50" from="-501941753#0" to="-206609418" type="passenger"/>
    <trip id="26" depart="13.00" from="-206804306#2" to="66252748#1" type="passenger"/>
    <trip id="27" depart="13.50" from="134815523#2" to="134026601#6" type="passenger"/>
    <trip id="28" depart="14.00" from="-134779333" to="22933592#19" type="passenger"/>
    <trip id="29" depart="14.50" from="-134027624#6" to="-66105421#6" type="passenger"/>
    <trip id="30" depart="15.00" from="993560242#0" to="134815599#1" type="passenger"/>
    <trip id="31" depart="15.50" from="130435483#7" to="155611919#0" type="passenger"/>
    <trip id="32" depart="16.00" from="405629540#2" to="29980802#6" type="passenger"/>
    <trip id="33" depart="16.50" from="-155611933#1" to="-1208992466#0" type="passenger"/>
    <trip id="34" depart="17.00" from="-306128417" to="-29980785#1" type="passenger"/>
    <trip id="35" depart="17.50" from="-134917709#0" to="66292231#3" type="passenger"/>
    <trip id="36" depart="18.00" from="581494297#1" to="-378708366#0" type="passenger"/>
    <trip id="37" depart="18.50" from="134815582#5" to="-77848341#1" type="passenger"/>
    <trip id="38" depart="19.00" from="594393248" to="1119598669" type="passenger"/>
    <trip id="39" depart="19.50" from="-206788543#5" to="-25967624#8" type="passenger"/>
    <trip id="40" depart="20.00" from="131290307#18" to="-29980776#4" type="passenger"/>
    <trip id="41" depart="20.50" from="1337850052#0" to="593359204#7" type="passenger"/>
    <trip id="42" depart="21.00" from="-593057746#0" to="-206788437#3" type="passenger"/>
    <trip id="43" depart="21.50" from="993571695" to="129124116#1" type="passenger"/>
    <trip id="44" depart="22.00" from="-133120058#1" to="-1290154745#0" type="passenger"/>
    <trip id="45" depart="22.50" from="-1338144746" to="134815521#0" type="passenger"/>
    <trip id="46" depart="23.00" from="29980804#1" to="-993568898#3" type="passenger"/>
    <trip id="47" depart="23.50" from="-129119262#0" to="-66292215#0" type="passenger"/>
    <trip id="48" depart="24.00" from="993568919#1" to="131290323#3" type="passenger"/>
    <trip id="49" depart="24.50" from="910301078" to="581482781#6" type="passenger"/>
    <trip id="50" depart="25.00" from="-1065039917#1" to="206788543#1" type="passenger"/>
    <trip id="51" depart="25.50" from="134917720#8" to="1326446244" type="passenger"/>
    <trip id="52" depart="26.00" from="-206804306#0" to="134815607#0" type="passenger"/>
    <trip id="53" depart="26.50" from="-1338144774" to="1036189762" type="passenger"/>
    <trip id="54" depart="27.00" from="-992425921#0" to="742394392#4" type="passenger"/>
    <trip id="55" depart="27.50" from="581494293#1" to="-29980779#0" type="passenger"/>
    <trip id="56" depart="28.00" from="1117819143#0" to="-134917687#3" type="passenger"/>
    <trip id="57" depart="28.50" from="594392948#3" to="581637285#0" type="passenger"/>
    <trip id="58" depart="29.00" from="-29980784#6" to="134815595#0" type="passenger"/>
    <trip id="59" depart="29.50" from="1338514052" to="-134815531#3" type="passenger"/>
    <trip id="60" depart="30.00" from="269621157" to="133360769#6" type="passenger"/>
    <trip id="61" depart="30.50" from="29980774#2" to="131290329#1" type="passenger"/>
    <trip id="62" depart="31.00" from="-1002513565#4" to="-458806217#0" type="passenger"/>
    <trip id="63" depart="31.50" from="-1083739769#3" to="66102251#1" type="passenger"/>
    <trip id="64" depart="32.00" from="581494310#5" to="422022782#5" type="passenger"/>
    <trip id="65" depart="32.50" from="-29980811" to="-129121443#2" type="passenger"/>
    <trip id="66" depart="33.00" from="581494307#5" to="701980858#3" type="passenger"/>
    <trip id="67" depart="33.50" from="-131290325#1" to="1237357459" type="passenger"/>
    <trip id="68" depart="34.00" from="-129124116#6" to="29980765#4" type="passenger"/>
    <trip id="69" depart="34.50" from="27041532#1" to="-133895940#1" type="passenger"/>
    <trip id="70" depart="35.00" from="1002513565#3" to="1337852608" type="passenger"/>
    <trip id="71" depart="35.50" from="-206788544#0" to="581641507#0" type="passenger"/>
    <trip id="72" depart="36.00" from="-66252738#4" to="-206609433#1" type="passenger"/>
    <trip id="73" depart="36.50" from="129117419#0" to="22933592#7" type="passenger"/>
    <trip id="74" depart="37.00" from="-134907268#4" to="-377997447#2" type="passenger"/>
    <trip id="75" depart="37.50" from="993568906" to="134907261#2" type="passenger"/>
    <trip id="76" depart="38.00" from="-77848341#13" to="130435483#8" type="passenger"/>
    <trip id="77" depart="38.50" from="-1338144842#1" to="-206788487#1" type="passenger"/>
    <trip id="78" depart="39.00" from="-374785135#1" to="1338514076" type="passenger"/>
    <trip id="79" depart="39.50" from="-155623297#6" to="-206788440#1" type="passenger"/>
    <trip id="80" depart="40.00" from="-129124349#1" to="134815531#1" type="passenger"/>
    <trip id="81" depart="40.50" from="-155611933#0" to="594392935#3" type="passenger"/>
    <trip id="82" depart="41.00" from="501930651#1" to="-131290307#19" type="passenger"/>
    <trip id="83" depart="41.50" from="-206609408#1" to="134923595#0" type="passenger"/>
    <trip id="84" depart="42.00" from="-134917721#1" to="-134026598#0" type="passenger"/>
    <trip id="85" depart="42.50" from="66102347#4" to="1338149290" type="passenger"/>
    <trip id="86" depart="43.00" from="-993574988#1" to="29984343" type="passenger"/>
    <trip id="87" depart="43.50" from="30919046#1" to="-134927079#1" type="passenger"/>
    <trip id="88" depart="44.00" from="-133368413#0" to="1014526386#1" type="passenger"/>
    <trip id="89" depart="44.50" from="-66292215#1" to="1192798513" type="passenger"/>
    <trip id="90" depart="45.00" from="206788498#1" to="134938584#2" type="passenger"/>
    <trip id="91" depart="45.50" from="992428531" to="-1338144783#0" type="passenger"/>
    <trip id="92" depart="46.00" from="-593359198#5" to="-503496995#4" type="passenger"/>
    <trip id="93" depart="46.50" from="501935238#1" to="-263298762" type="passenger"/>
    <trip id="94" depart="47.00" from="-134815604#0" to="1083099378#2" type="passenger"/>
    <trip id="95" depart="47.50" from="-66239967#2" to="-29982697#5" type="passenger"/>
    <trip id="96" depart="48.00" from="-206788437#3" to="651641884#2" type="passenger"/>
    <trip id="97" depart="48.50" from="-910677577#0" to="581482786#2" type="passenger"/>
    <trip id="98" depart="49.00" from="129124120#8" to="-129117416#9" type="passenger"/>
    <trip id="99" depart="49.50" from="999311252" to="444510305" type="passenger"/>
    <trip id="100" depart="50.00" from="907596674#2" to="66058397" type="passenger"/>
    <trip id="101" depart="50.50" from="439263684#9" to="-134907229#1" type="passenger"/>
    <trip id="102" depart="51.00" from="1054205837#3" to="-206786867#0" type="passenger"/>
    <trip id="103" depart="51.50" from="-593064163" to="-129122544#0" type="passenger"/>
    <trip id="104" depart="52.00" from="-581494298#4" to="992440693#0" type="passenger"/>
    <trip id="105" depart="52.50" from="-206788544#1" to="29982722#3" type="passenger"/>
    <trip id="106" depart="53.00" from="-992425934#1" to="-993568905" type="passenger"/>
    <trip id="107" depart="53.50" from="742394390#3" to="993568922" type="passenger"/>
    <trip id="108" depart="54.00" from="130435483#11" to="206788535#1" type="passenger"/>
    <trip id="109" depart="54.50" from="-1338551632#2" to="-329852896#5" type="passenger"/>
    <trip id="110" depart="55.00" from="907596674#0" to="1338513933#0" type="passenger"/>
    <trip id="111" depart="55.50" from="129118816#1" to="27041528#0" type="passenger"/>
    <trip id="112" depart="56.00" from="1122575000" to="501941751#0" type="passenger"/>
    <trip id="113" depart="56.50" from="-133895942#1" to="77848341#1" type="passenger"/>
    <trip id="114" depart="57.00" from="-131290312#14" to="-134917730#0" type="passenger"/>
    <trip id="115" depart="57.50" from="-191229466#2" to="-1338534583#0" type="passenger"/>
    <trip id="116" depart="58.00" from="592906255" to="-25967624#4" type="passenger"/>
    <trip id="117" depart="58.50" from="1234537701" to="66239969#2" type="passenger"/>
    <trip id="118" depart="59.00" from="-134917667#18" to="206788519#3" type="passenger"/>
    <trip id="119" depart="59.50" from="-206609408#8" to="-77848341#11" type="passenger"/>
    <trip id="120" depart="60.00" from="134917667#12" to="-351406897#0" type="passenger"/>
    <trip id="121" depart="60.50" from="-306128586" to="27046358#6" type="passenger"/>
    <trip id="122" depart="61.00" from="-130435483#12" to="1119598668#0" type="passenger"/>
    <trip id="123" depart="61.50" from="993577214" to="993570389" type="passenger"/>
    <trip id="124" depart="62.00" from="-130435483#2" to="-206786855#0" type="passenger"/>
    <trip id="125" depart="62.50" from="-206788544#1" to="66105421#2" type="passenger"/>
    <trip id="126" depart="63.00" from="581500436#3" to="592749313" type="passenger"/>
    <trip id="127" depart="63.50" from="-501940841#1" to="-134815581" type="passenger"/>
    <trip id="128" depart="64.00" from="377995936#0" to="206788429#7" type="passenger"/>
    <trip id="129" depart="64.50" from="1338534551" to="993559453" type="passenger"/>
    <trip id="130" depart="65.00" from="134815570#5" to="-1046496425#8" type="passenger"/>
    <trip id="131" depart="65.50" from="320735554#2" to="-351405119#2" type="passenger"/>
    <trip id="132" depart="66.00" from="134907216#0" to="66292221#14" type="passenger"/>
    <trip id="133" depart="66.50" from="-1338513949" to="-1338514054" type="passenger"/>
    <trip id="134" depart="67.00" from="-1337852650" to="1337852645" type="passenger"/>
    <trip id="135" depart="67.50" from="-232505861#6" to="133895942#4" type="passenger"/>
    <trip id="136" depart="68.00" from="206788427#2" to="-172098705#0" type="passenger"/>
    <trip id="137" depart="68.50" from="1341531136#3" to="-29980780#0" type="passenger"/>
    <trip id="138" depart="69.00" from="1065039921" to="594392935#21" type="passenger"/>
    <trip id="139" depart="69.50" from="428015698#0" to="-1337850057#1" type="passenger"/>
    <trip id="140" depart="70.00" from="-66292215#1" to="-29980812#0" type="passenger"/>
    <trip id="141" depart="70.50" from="-1015042569#0" to="29980790#1" type="passenger"/>
    <trip id="142" depart="71.00" from="134764501#1" to="-29980774#6" type="passenger"/>
    <trip id="143" depart="71.50" from="206804318#5" to="1337852630" type="passenger"/>
    <trip id="144" depart="72.00" from="-725275641#1" to="-1062049519#1" type="passenger"/>
    <trip id="145" depart="72.50" from="-131290302#3" to="593053213#2" type="passenger"/>
    <trip id="146" depart="73.00" from="593359204#13" to="1337850051" type="passenger"/>
    <trip id="147" depart="73.50" from="377995939#0" to="1338514028" type="passenger"/>
    <trip id="148" depart="74.00" from="-1338534601" to="-133894598#0" type="passenger"/>
    <trip id="149" depart="74.50" from="-29982694#1" to="593359224#2" type="passenger"/>
    <trip id="150" depart="75.00" from="29982699#4" to="581482781#5" type="passenger"/>
    <trip id="151" depart="75.50" from="593286445#12" to="-206609422" type="passenger"/>
    <trip id="152" depart="76.00" from="29980778#2" to="593053216#5" type="passenger"/>
    <trip id="153" depart="76.50" from="-593559035#1" to="134779327" type="passenger"/>
    <trip id="154" depart="77.00" from="-1338551632#0" to="66102325#1" type="passenger"/>
    <trip id="155" depart="77.50" from="31232216#1" to="592912265" type="passenger"/>
    <trip id="156" depart="78.00" from="-1118869421#1" to="255924992#11" type="passenger"/>
    <trip id="157" depart="78.50" from="-351408467#2" to="66102347#6" type="passenger"/>
    <trip id="158" depart="79.00" from="306128422" to="581494297#1" type="passenger"/>
    <trip id="159" depart="79.50" from="31232216#1" to="-29980783#7" type="passenger"/>
    <trip id="160" depart="80.00" from="29980791#3" to="-1338149304#0" type="passenger"/>
    <trip id="161" depart="80.50" from="554785646#3" to="543277406#1" type="passenger"/>
    <trip id="162" depart="81.00" from="-134938584#1" to="374788802#1" type="passenger"/>
    <trip id="163" depart="81.50" from="-992440693#2" to="-374785130#1" type="passenger"/>
    <trip id="164" depart="82.00" from="29982697#2" to="-206788513#1" type="passenger"/>
    <trip id="165" depart="82.50" from="-1114849911#0" to="-134938591#0" type="passenger"/>
    <trip id="166" depart="83.00" from="-329852896#14" to="581494298#0" type="passenger"/>
    <trip id="167" depart="83.50" from="780268231" to="-29982699#4" type="passenger"/>
    <trip id="168" depart="84.00" from="134779381#0" to="-910309332#2" type="passenger"/>
    <trip id="169" depart="84.50" from="992425918#0" to="132549654#2" type="passenger"/>
    <trip id="170" depart="85.00" from="66239967#1" to="-1338514052" type="passenger"/>
    <trip id="171" depart="85.50" from="908270869#1" to="-134917687#2" type="passenger"/>
    <trip id="172" depart="86.00" from="761628942" to="-29980782#4" type="passenger"/>
    <trip id="173" depart="86.50" from="-1338144738" to="1015198010#1" type="passenger"/>
    <trip id="174" depart="87.00" from="206788496#1" to="-377998323#10" type="passenger"/>
    <trip id="175" depart="87.50" from="1338513945" to="129124348#1" type="passenger"/>
    <trip id="176" depart="88.00" from="-581641516#0" to="1338149328#2" type="passenger"/>
    <trip id="177" depart="88.50" from="-206788482#0" to="206788464" type="passenger"/>
    <trip id="178" depart="89.00" from="-1012132088" to="655334577#4" type="passenger"/>
    <trip id="179" depart="89.50" from="129117417#1" to="206788537#6" type="passenger"/>
    <trip id="180" depart="90.00" from="207162164#1" to="134927050#1" type="passenger"/>
    <trip id="181" depart="90.50" from="-501935227#1" to="-131290307#10" type="passenger"/>
    <trip id="182" depart="91.00" from="134907233#1" to="-501930652#0" type="passenger"/>
    <trip id="183" depart="91.50" from="-29982724#1" to="501935238#0" type="passenger"/>
    <trip id="184" depart="92.00" from="206788429#6" to="-351408467#1" type="passenger"/>
    <trip id="185" depart="92.50" from="-29982697#2" to="-992425909#0" type="passenger"/>
    <trip id="186" depart="93.00" from="-593359198#3" to="-329852896#10" type="passenger"/>
    <trip id="187" depart="93.50" from="-1338149310#1" to="-993562638#1" type="passenger"/>
    <trip id="188" depart="94.00" from="66252738#1" to="134949300" type="passenger"/>
    <trip id="189" depart="94.50" from="593359198#5" to="134137177#5" type="passenger"/>
    <trip id="190" depart="95.00" from="-29980791#0" to="1337850063" type="passenger"/>
    <trip id="191" depart="95.50" from="-1002513565#3" to="-30919042#1" type="passenger"/>
    <trip id="192" depart="96.00" from="-725277463#6" to="1338513941#0" type="passenger"/>
    <trip id="193" depart="96.50" from="134815580" to="1190160447" type="passenger"/>
    <trip id="194" depart="97.00" from="-909831928" to="-206786863#2" type="passenger"/>
    <trip id="195" depart="97.50" from="-993577213" to="593554645" type="passenger"/>
    <trip id="196" depart="98.00" from="29982699#3" to="-134907261#3" type="passenger"/>
    <trip id="197" depart="98.50" from="-131290321#6" to="1296932458" type="passenger"/>
    <trip id="198" depart="99.00" from="134137175#9" to="-501940837" type="passenger"/>
    <trip id="199" depart="99.50" from="329852896#4" to="27041813#5" type="passenger"/>
    <trip id="200" depart="100.00" from="134917667#5" to="-206788487#0" type="passenger"/>
    <trip id="201" depart="100.50" from="-134907261#3" to="-1126074942#0" type="passenger"/>
    <trip id="202" depart="101.00" from="-206788427#1" to="1225591966" type="passenger"/>
    <trip id="203" depart="101.50" from="451338431#0" to="-131290312#13" type="passenger"/>
    <trip id="204" depart="102.00" from="-651641876#3" to="134815523#3" type="passenger"/>
    <trip id="205" depart="102.50" from="-134907205#1" to="206609420#0" type="passenger"/>
    <trip id="206" depart="103.00" from="1083099378#5" to="-255924992#2" type="passenger"/>
    <trip id="207" depart="103.50" from="134815585#3" to="-1046496425#0" type="passenger"/>
    <trip id="208" depart="104.00" from="243944959#1" to="29980786#1" type="passenger"/>
    <trip id="209" depart="104.50" from="-1337852646#1" to="-993571690#0" type="passenger"/>
    <trip id="210" depart="105.00" from="-134815516#17" to="761658219" type="passenger"/>
    <trip id="211" depart="105.50" from="1225620432#0" to="-129117416#6" type="passenger"/>
    <trip id="212" depart="106.00" from="-206788433#1" to="501935238#3" type="passenger"/>
    <trip id="213" depart="106.50" from="-992428528#1" to="316398315#0" type="passenger"/>
    <trip id="214" depart="107.00" from="593038858#6" to="134097162#1" type="passenger"/>
    <trip id="215" depart="107.50" from="206788429#1" to="129119267" type="passenger"/>
    <trip id="216" depart="108.00" from="374785146" to="1337850061" type="passenger"/>
    <trip id="217" depart="108.50" from="593057745#4" to="263298510#0" type="passenger"/>
    <trip id="218" depart="109.00" from="-999311256" to="-29980765#3" type="passenger"/>
    <trip id="219" depart="109.50" from="-206788429#7" to="134815583#0" type="passenger"/>
    <trip id="220" depart="110.00" from="27041532#1" to="131290307#13" type="passenger"/>
    <trip id="221" depart="110.50" from="134026601#1" to="-29980802#5" type="passenger"/>
    <trip id="222" depart="111.00" from="-131290307#13" to="-30919012#0" type="passenger"/>
    <trip id="223" depart="111.50" from="-232505861#0" to="-428015701#0" type="passenger"/>
    <trip id="224" depart="112.00" from="129117422#0" to="-134137175#6" type="passenger"/>
    <trip id="225" depart="112.50" from="-155629773#14" to="206609407#0" type="passenger"/>
    <trip id="226" depart="113.00" from="156225363#2" to="-129124461#2" type="passenger"/>
    <trip id="227" depart="113.50" from="-594253837" to="133360782#5" type="passenger"/>
    <trip id="228" depart="114.00" from="-651641879#1" to="-206283813#1" type="passenger"/>
    <trip id="229" depart="114.50" from="-66102234#9" to="594392935#17" type="passenger"/>
    <trip id="230" depart="115.00" from="133369429#8" to="206609412" type="passenger"/>
    <trip id="231" depart="115.50" from="461525359#0" to="29980780#3" type="passenger"/>
    <trip id="232" depart="116.00" from="-581500436#5" to="-1046496425#11" type="passenger"/>
    <trip id="233" depart="116.50" from="-428015694" to="293066629#4" type="passenger"/>
    <trip id="234" depart="117.00" from="458806222#0" to="742394392#0" type="passenger"/>
    <trip id="235" depart="117.50" from="-66058401#5" to="27041520#1" type="passenger"/>
    <trip id="236" depart="118.00" from="129122543#1" to="133894598#0" type="passenger"/>
    <trip id="237" depart="118.50" from="-134927079#0" to="-206788437#4" type="passenger"/>
    <trip id="238" depart="119.00" from="-744231826" to="-1192638249#6" type="passenger"/>
    <trip id="239" depart="119.50" from="-374742901#1" to="1352981821" type="passenger"/>
    <trip id="240" depart="120.00" from="-593359204#7" to="-134907204" type="passenger"/>
    <trip id="241" depart="120.50" from="-993568886" to="-133894599#0" type="passenger"/>
    <trip id="242" depart="121.00" from="-1124908481#1" to="134815625#3" type="passenger"/>
    <trip id="243" depart="121.50" from="-1338514028" to="1127454896" type="passenger"/>
    <trip id="244" depart="122.00" from="-1237357462" to="-66105421#2" type="passenger"/>
    <trip id="245" depart="122.50" from="-134917714#0" to="-458806233" type="passenger"/>
    <trip id="246" depart="123.00" from="26793391#6" to="-66105421#2" type="passenger"/>
    <trip id="247" depart="123.50" from="255924992#11" to="422022782#7" type="passenger"/>
    <trip id="248" depart="124.00" from="-206788461" to="-1317836545" type="passenger"/>
    <trip id="249" depart="124.50" from="-1083739769#2" to="133360769#6" type="passenger"/>
    <trip id="250" depart="125.00" from="999311256" to="-581641517" type="passenger"/>
    <trip id="251" depart="125.50" from="134815534" to="29982709" type="passenger"/>
    <trip id="252" depart="126.00" from="134815560#1" to="293066632#1" type="passenger"/>
    <trip id="253" depart="126.50" from="66292238#4" to="-155611934#1" type="passenger"/>
    <trip id="254" depart="127.00" from="-1086678304" to="-134815530#8" type="passenger"/>
    <trip id="255" depart="127.50" from="-1338149303" to="134923598#0" type="passenger"/>
    <trip id="256" depart="128.00" from="131290312#19" to="-206788432#4" type="passenger"/>
    <trip id="257" depart="128.50" from="1423471887" to="29980782#5" type="passenger"/>
    <trip id="258" depart="129.00" from="-134137177#2" to="133940324#0" type="passenger"/>
    <trip id="259" depart="129.50" from="232505861#4" to="-1338514042#2" type="passenger"/>
    <trip id="260" depart="130.00" from="351388923#3" to="907597375" type="passenger"/>
    <trip id="261" depart="130.50" from="-1338144734" to="-116588407#1" type="passenger"/>
    <trip id="262" depart="131.00" from="-29982714#1" to="134949300" type="passenger"/>
    <trip id="263" depart="131.50" from="742394391#4" to="-77848341#7" type="passenger"/>
    <trip id="264" depart="132.00" from="206609434" to="-131290312#6" type="passenger"/>
    <trip id="265" depart="132.50" from="134938590" to="134815520#1" type="passenger"/>
    <trip id="266" depart="133.00" from="-1337852597" to="29980793#2" type="passenger"/>
    <trip id="267" depart="133.50" from="455844790" to="1338551625#1" type="passenger"/>
    <trip id="268" depart="134.00" from="-1338144844" to="992434647" type="passenger"/>
    <trip id="269" depart="134.50" from="29980782#5" to="-581637281#2" type="passenger"/>
    <trip id="270" depart="135.00" from="-725276156#1" to="-598058533#0" type="passenger"/>
    <trip id="271" depart="135.50" from="116588407#0" to="-553610280#1" type="passenger"/>
    <trip id="272" depart="136.00" from="444510307#0" to="377997455#1" type="passenger"/>
    <trip id="273" depart="136.50" from="-1337852636" to="77848341#1" type="passenger"/>
    <trip id="274" depart="137.00" from="134736738" to="405629532#6" type="passenger"/>
    <trip id="275" depart="137.50" from="191229315#0" to="104184213#2" type="passenger"/>
    <trip id="276" depart="138.00" from="206788529#1" to="908257535#2" type="passenger"/>
    <trip id="277" depart="138.50" from="-207162258#0" to="353675721#1" type="passenger"/>
    <trip id="278" depart="139.00" from="129117416#8" to="1235146655" type="passenger"/>
    <trip id="279" depart="139.50" from="-744229307" to="22933595#2" type="passenger"/>
    <trip id="280" depart="140.00" from="-206804314#0" to="501940837" type="passenger"/>
    <trip id="281" depart="140.50" from="374788801#0" to="-133360777#3" type="passenger"/>
    <trip id="282" depart="141.00" from="581505759#1" to="-255924992#19" type="passenger"/>
    <trip id="283" depart="141.50" from="-993560247" to="134027624#4" type="passenger"/>
    <trip id="284" depart="142.00" from="-581494298#4" to="-1192638249#3" type="passenger"/>
    <trip id="285" depart="142.50" from="456067771#0" to="-134917714#1" type="passenger"/>
    <trip id="286" depart="143.00" from="-134917714#5" to="316397952#0" type="passenger"/>
    <trip id="287" depart="143.50" from="-374788801#3" to="592749329" type="passenger"/>
    <trip id="288" depart="144.00" from="155602920#1" to="-29980807#1" type="passenger"/>
    <trip id="289" depart="144.50" from="-1062049518#1" to="725275641#1" type="passenger"/>
    <trip id="290" depart="145.00" from="-131290325#0" to="206788541#1" type="passenger"/>
    <trip id="291" depart="145.50" from="1065039921" to="29976383#1" type="passenger"/>
    <trip id="292" depart="146.00" from="134938586" to="134907216#0" type="passenger"/>
    <trip id="293" depart="146.50" from="1076758927" to="30919046#15" type="passenger"/>
    <trip id="294" depart="147.00" from="-133360772#1" to="-206788456" type="passenger"/>
    <trip id="295" depart="147.50" from="134938593#1" to="-374785135#1" type="passenger"/>
    <trip id="296" depart="148.00" from="133360782#4" to="1222166844#1" type="passenger"/>
    <trip id="297" depart="148.50" from="1266015961" to="-993571695" type="passenger"/>
    <trip id="298" depart="149.00" from="22933592#9" to="-501931152" type="passenger"/>
    <trip id="299" depart="149.50" from="155623297#6" to="-29980793#0" type="passenger"/>
    <trip id="300" depart="150.00" from="-206788449#0" to="-1338534591#1" type="passenger"/>
    <trip id="301" depart="150.50" from="-134823127#2" to="-1338534581#0" type="passenger"/>
    <trip id="302" depart="151.00" from="129117411#0" to="29980771#3" type="passenger"/>
    <trip id="303" depart="151.50" from="-134815570#1" to="-206788429#3" type="passenger"/>
    <trip id="304" depart="152.00" from="1046496425#9" to="206804313#3" type="passenger"/>
    <trip id="305" depart="152.50" from="919012220#0" to="131290312#20" type="passenger"/>
    <trip id="306" depart="153.00" from="-134907201#1" to="-206788513#0" type="passenger"/>
    <trip id="307" depart="153.50" from="-134815523#0" to="-1083098740#0" type="passenger"/>
    <trip id="308" depart="154.00" from="1290162185" to="-29980802#3" type="passenger"/>
    <trip id="309" depart="154.50" from="911070936" to="1337852646#1" type="passenger"/>
    <trip id="310" depart="155.00" from="1395492908#10" to="-1338551632#1" type="passenger"/>
    <trip id="311" depart="155.50" from="503496995#0" to="1252503498" type="passenger"/>
    <trip id="312" depart="156.00" from="581482781#2" to="1338149310#1" type="passenger"/>
    <trip id="313" depart="156.50" from="-993568909#1" to="1062049518#1" type="passenger"/>
    <trip id="314" depart="157.00" from="-134815567#3" to="-129117417#7" type="passenger"/>
    <trip id="315" depart="157.50" from="66252743#1" to="1225835889" type="passenger"/>
    <trip id="316" depart="158.00" from="351408467#1" to="-910683079#0" type="passenger"/>
    <trip id="317" depart="158.50" from="-1305572959" to="134815523#0" type="passenger"/>
    <trip id="318" depart="159.00" from="-1252508128#0" to="-134815521#2" type="passenger"/>
    <trip id="319" depart="159.50" from="131290312#0" to="-374742896#2" type="passenger"/>
    <trip id="320" depart="160.00" from="993568898#0" to="-1338534566#0" type="passenger"/>
    <trip id="321" depart="160.50" from="27041528#5" to="133939584" type="passenger"/>
    <trip id="322" depart="161.00" from="29980800#4" to="-206788496#2" type="passenger"/>
    <trip id="323" depart="161.50" from="1234537700#0" to="1083739766#1" type="passenger"/>
    <trip id="324" depart="162.00" from="-910309332#2" to="581482781#0" type="passenger"/>
    <trip id="325" depart="162.50" from="993560242#5" to="-374785131#1" type="passenger"/>
    <trip id="326" depart="163.00" from="133894596#1" to="134026607#0" type="passenger"/>
    <trip id="327" depart="163.50" from="206804312#1" to="725275277#3" type="passenger"/>