<?xml version="1.0" encoding="UTF-8"?>

<!-- generated on 2025-11-24T12:58:45.002557+05:30 by Eclipse SUMO duarouter 1.25.0
<duarouterConfiguration xmlns:xsi="http://www.w3.org/2001/XMLSchema-instance" xsi:noNamespaceSchemaLocation="http://sumo.dlr.de/xsd/duarouterConfiguration.xsd">

    <input>
        <net-file value="C:\Users\THUMMA JAHNAVI\.gemini\antigravity\scratch\sumo_config\network.net.xml"/>
        <route-files value="trips.trips.xml"/>
    </input>

    <output>
        <output-file value="C:\Users\THUMMA JAHNAVI\.gemini\antigravity\scratch\sumo_config\traffic.rou.xml"/>
        <alternatives-output value="NUL"/>
    </output>

    <time>
        <begin value="0"/>
        <end value="500.0"/>
    </time>

    <report>
        <no-warnings value="true"/>
        <ignore-errors value="true"/>
        <no-step-log value="true"/>
    </report>

</duarouterConfiguration>
-->

<routes xmlns:xsi="http://www.w3.org/2001/XMLSchema-instance" xsi:noNamespaceSchemaLocation="http://sumo.dlr.de/xsd/routes_file.xsd">
    <vType id="passenger" vClass="passenger"/>
    <vehicle id="0" type="passenger" depart="0.00">
        <route edges="134779346#0 1240216639 316397946 -131290312#30 -131290312#29 -131290312#28 -131290312#27 -131290312#26 -131290312#25 -131290312#24 -131290312#23 -131290312#22 -131290312#21 -131290312#20 -131290312#19 -131290312#18 -131290312#17 -131290312#16 -131290312#15 -131290312#14 -131290312#13 -131290312#12 -131290312#11 -131290312#10 -131290312#9 -131290312#8 -131290312#7 -131290312#6 -131290312#5 -131290312#4 -131290312#3 -131290312#2 -131290312#1 -131290312#0 761647347 593286445#3 593286445#4 593286445#5 593286445#6 593286445#7 593286445#8 593286445#9 593286445#10 593286445#11 593286445#12 593286445#13 593286445#14 593286445#15 593286445#16 593286445#17 761658220#0 761658220#1 761658220#2 761658220#3 761658220#4 293066629#0 293066629#1 293066629#2 293066629#3 293066629#4 -761625350 62288331#1 29980774#0 -1157491520#0"/>
    </vehicle>
    <vehicle id="1" type="passenger" depart="0.50">
        <route edges="-255924992#19 -255924992#18 -255924992#17 -255924992#16 -255924992#15 -255924992#14 -255924992#13 -255924992#12 -255924992#11 -255924992#10 -255924992#9 725276155#3 1322929096 1322929097 293066631#0 293066631#1 293066633 1294647154#1 1294647154#2 1294647154#3 1294647156#0 1054205838 293066632#0 293066632#1 293066632#2 293066632#3 293066632#4 -594392948#7 -594392948#6 -594392948#5 -594392948#4 -594392948#3 -594392948#2 -594392948#1 -594392948#0 761468551 30919046#13 30919046#14 30919046#15 30919046#16 30919046#17 30919046#18 30919046#19 30919046#20 30919046#21 594464980 594453885#2 594453885#3 594453885#4 594453885#5 594453885#6 594453885#7 594453885#8 594453885#9 594453885#10 -206788440#3 -206788440#2 -206788440#1 -206788440#0 -206788480#2 -206788480#1"/>
    </vehicle>
    <vehicle id="2" type="passenger" depart="1.00">
        <route edges="206788541#3 -206788475 -206788504#0 -206788541#1 -206788541#0 -206788427#5 -206788427#4 -206788427#3 -206788427#2 -206788427#1 -206788427#0 -1046496425#12 -1046496425#11 -1046496425#10 -1046496425#9 -1046496425#8 -1046496425#7 -1046496425#6 -1046496425#5 -1046496425#4 -1046496425#3 -1046496425#2 -1046496425#1 -1046496425#0 594392935#0 594392935#1 594392935#2 594392935#3 594392935#4 594392935#5 594392935#6 594392935#7 594392935#8 594392935#9 594392935#10 594392935#11 594392935#12 594392935#13 594392935#14 594392935#15 594392935#16 594392935#17 594392935#18 594392935#19 594392935#20 594392935#21 594392934#1 594392934#2 594392934#3 594392934#4 30919046#0 30919046#1 -131290307#23 -131290307#22 -131290307#21 -131290307#20 -131290307#19 -131290307#18 134938595#0 134938595#1 134938595#2 134938595#3"/>
    </vehicle>
    <vehicle id="3" type="passenger" depart="1.50">
        <route edges="593053213#3 593053213#4 593053214 593053221 593053225 593053229#0 66102325#0 66102325#1 1290157512#1 1290157512#2 1290157512#3 1290157512#4 1290157513 27041813#0 27041813#1 27041813#2 27041813#3 27041813#4 27041813#5 1290149174 25951184 456043921 62289808 62288367 1317835069 293066629#1 293066629#2 293066629#3 293066629#4 293066629#5 1294650226#6 1294650226#0 1294650226#1 1294650226#2 1294650225#0 293066632#4 -594392948#7 -594392948#6 -594392948#5 -594392948#4 -594392948#3 -594392948#2 -594392948#1 -594392948#0 761468551 133360777#0 133360777#1 133360777#2 133360777#3 -133360782#6 -133360782#5 -133360782#4 -133360782#3 -133360780#1"/>
    </vehicle>
    <vehicle id="4" type="passenger" depart="2.00">
        <route edges="-66239967#2 1239432402 374788803 66239969#1 66239969#2 66292218#0 66292218#1 66292218#2 66292218#3 66292218#4 66292218#5 66292218#6 1290162186#1 1290162186#2 1290162185 1317841914 581494303 455844791 134779302#0 134779302#1 134779302#2 134779302#3 1317836545 950021102 1194654533#0 -1194654533#0"/>
    </vehicle>
    <vehicle id="5" type="passenger" depart="2.50">
        <route edges="-134923598#0 134923592#1 134923592#2 -66058401#5 -66058401#4 -66058401#3 -66058401#2 -66058401#1 -66058401#0 29994511#2 1015184557#0 1015184557#1 1015184557#2 1015184557#3 593363265#0 593363265#1 593363265#2 593363265#3 593363265#4 593363265#5 593363265#6 593359212 1294650224 1294650226#4 62288331#0 62288331#1 62288331#2 62288331#3 62288331#4 62288331#5 293066630#0 293066630#1 593359206#0 593359206#1 593359201#0 593359201#1 593359198#0 593359198#1 593359198#2 593359198#3 593359198#4 593359198#5 -908268994 -129119270 129119271#1"/>
    </vehicle>
    <vehicle id="6" type="passenger" depart="3.00">
        <route edges="-1122575003#0 -131290303#5 -131290303#4 30919012#3 1207660675#3 -134938590 30919010#3 30919011#0 66049848#0 66049848#1 241418555#0 241418555#1 241418555#2 241418555#3 66252743#0 66252743#1 66252743#2 66252743#3 66252743#4 -66252738#6 -66252738#5 -66252738#4 -66252738#3 -66252738#2 -66252738#1 -66252738#0 -1316883072 -22964201 25842789#5 25842789#6 25842789#7 25842789#0 25842789#1 66239973 66297869 1316883070 1271461292#0 1271461292#1 66292218#0 66292218#1 66292218#2 66292218#3 66292218#4 66292218#5 66292218#6 1290162186#1 1290162186#2 1290162185 1317841914 581494303 455844791 134779302#0 134779302#1 134779302#2 134779302#3 1317836545 581500436#0 -155611932 -155611933#0"/>
    </vehicle>
    <vehicle id="7" type="passenger" depart="3.50">
        <route edges="134815531#6 134815531#7 -134907250#1 -1081688740#1 -1081688740#0 -584390781#2 -584390781#1 -584390781#0 -131294132#0 -131294140 1082630681 593053213#0 593053213#1 593053213#2 593053213#3 -134815582#6 66102347#6 51324879#0 51324879#1 51324879#2 -1305572959 -391865948#5 -391865948#4 -391865948#3 -391865948#2 -391865948#1 -391865948#0 -391865949 -701980858#5 -701980858#4 -701980858#3 -701980858#2 -701980858#1 -701980858#0 -1327813682 -701980859 -1327813681 -22917339 593286445#0 593286445#1 593286445#2 -761647347 131290312#0 131290312#1 131290312#2 131290312#3 131290312#4 131290312#5 131290312#6 131290312#7 131290312#8 131290312#9 131290312#10 131290312#11 131290312#12 131290312#13 131290312#14 131290312#15 131290312#16 131290312#17 131290312#18 131290312#19 131290312#20 131290312#21 131290312#22 131290312#23 131290312#24 131290312#25 131290312#26 131290312#27 131290312#28 131290312#29 131290312#30 131290312#31 131290312#32 131290312#33 131290312#34 131290312#35 131290312#36 131290312#37 131290312#38 131290312#39 131290312#40 1046496425#14 1046496425#15 -133369429#8 133369429#8"/>
    </vehicle>
    <vehicle id="8" type="passenger" depart="4.00">
        <route edges="-134927064#2 -66292237#0 66292230#3 66292230#4 28086234#0 66292222#1 66292222#2 66292222#3 66292222#4 66292222#5 66292222#6 66292222#7 66292222#8 66292222#9 66292222#10 66292222#11 66102248#0 1341531140#1 1341531140#2 1341531138 1341531136#0 1341531136#1 1341531136#2 1341531136#3 1341531136#4 1341531136#5 1341531136#6 1341531136#7 1095596361 671975741 25842789#3 25842789#4 22964201 1316883072 293066646#0 293066646#1 293066646#2 1338534553"/>
    </vehicle>
    <vehicle id="9" type="passenger" depart="4.50">
        <route edges="30919046#27 30919046#28 30919046#29 30919046#30 30919046#31 30919046#32 1046496425#0 1046496425#1 1046496425#2 1046496425#3 1046496425#4 1046496425#5 1046496425#6 1046496425#7 1046496425#8 1046496425#9 1046496425#10 1046496425#11 1046496425#12 1046496425#13 1046496425#14 1046496425#15 1046496425#16 1046496425#17 -1046496425#17"/>
    </vehicle>
    <vehicle id="10" type="passenger" depart="5.00">
        <route edges="30919042#14 30919042#15 30919042#16 30919042#17 30919042#18 30919042#19 30919042#20 761658219 761658220#0 761658220#1 761658220#2 761658220#3 761658220#4 293066629#0 293066629#1 293066629#2 293066629#3 293066629#4 293066629#5 1294650226#6 1294650226#0 741832184 1054205837#0 1054205837#1 1054205837#2 1054205837#3 1054205837#4 1294647155#0 1294647155#1 1294647154#5 66117847#0 66117847#1 1322929095 1322929094 -725276155#3 -725276155#2 -725276155#1 -725276155#0 -725276156#1 -725276156#0 -29982697#5 -29982697#4 -29982697#3 -29982697#2 -29982697#1 -29982697#0 1222166844#0 1222166844#1 66292231#0 66292231#1 66292231#2 66292231#3 66292231#4 -1070273295 1082630677#3 1082630677#4 581494313#0 581494313#1 581494313#2 581494313#3 1290162184#0 1290162184#1 1290162186#4 1290162186#5 1290162186#6 842246921#0 842246921#1 -116588886#2 206609431"/>
    </vehicle>
    <vehicle id="11" type="passenger" depart="5.50">
        <route edges="-374788801#2 -374788801#1 -374788801#0 1350085630#4 1350085631 155817946#0 155817946#1 1271461292#1 66292218#0 66292218#1 66292218#2 66292218#3 66292218#4 66292218#5 66292218#6 1290162186#1 1290162186#2 1290162185 1317841914 581494303 455844791 134779302#0 134779302#1 134779302#2 134779302#3 1317836545 581500436#0 581500436#1 -134815567#3 -134815567#2"/>
    </vehicle>
    <vehicle id="12" type="passenger" depart="6.00">
        <route edges="742394390#2 742394390#3 329852896#13 329852896#14 329852896#15 329852896#16 1337733825 25951346#1 25951346#2 25951346#3 1062049518#1 28086234#2 -206609430#1 -501949256"/>
    </vehicle>
    <vehicle id="13" type="passenger" depart="6.50">
        <route edges="-133360769#7 133360769#7 133360769#8 1062095070 594392935#19 594392935#20 594392935#21 594392934#1 594392936#0 594392936#1 594392936#2 66292214 -62288325#4 -62288325#3 -62288325#2 -62288325#1 -62288325#0 908257535#0 908257535#1 908257535#2 908257535#3 908257535#4 908257536#0 908257536#1 908257536#2 908257261 134823127#4 134823127#5 134823126 241418557#0 241418557#1 241418557#2 1316883071 -66297870 66058391 25842789#7 25842789#0 25842789#1 66239973 66297869 1316883070 1296930925 1237978354#0 1237978354#1 1237978354#2 1237978354#3 1328108719 1237978355#0 1237978355#1 1237978355#2 1237978355#3 1237978355#4 1237978355#5 243944959#0 243944959#1 243944959#2 243944959#3 243944959#4 243944959#5 329852896#0 329852896#1 329852896#2 329852896#3 329852896#4 329852896#5 329852896#6 -1338144742#2 -1338144742#1 1338144743#0 1338144743#1 -1338144743#1 -1338144743#0"/>
    </vehicle>
    <vehicle id="14" type="passenger" depart="7.00">
        <route edges="438599601#3 129124114#0 129124114#1 129124125#1 -131290312#12 -131290312#11 -131290312#10 -131290312#9 -131290312#8 -131290312#7 -131290312#6 -131290312#5 -131290312#4 -131290312#3 -131290312#2 -131290312#1 -131290312#0 761647347 593286445#3 593286445#4 593286445#5 593286445#6 593286445#7 593286445#8 593286445#9 593286445#10 593286445#11 593286445#12 593286445#13 593286445#14 593286445#15 593286445#16 593286445#17 761658220#0 761658220#1 761658220#2 761658220#3 761658220#4 293066629#0 293066629#1 293066629#2 293066629#3 293066629#4 293066629#5 1294650226#6 1294650226#0 741832184 1054205837#0 1054205837#1 1054205837#2 1054205837#3 1054205837#4 1294647155#0 1294647155#1 1294647154#5 66117847#0 66117847#1 1322929095 1322929094 -725276155#3 -725276155#2 -725276155#1 -725276155#0 -725276156#1 -725276156#0 -29982697#5 -29982697#4 -29982697#3 -29982697#2 -29982697#1 -29982697#0 1222166844#0 1222166844#1 -1222166845#3 -1222166845#2 -1222166845#1 -1222166845#0 761671785#6 761671785#7 761671785#8 133895492#0"/>
    </vehicle>
    <vehicle id="15" type="passenger" depart="7.50">
        <route edges="30919042#8 -129117419#4 -129117419#3 -129117419#2 -129117419#1 -129117419#0 -593359198#11 -593359198#10 -593359198#9 -593359198#8 -593359198#7 -593359198#6 -593359198#5 -593359198#4 -593359198#3 -593359198#2 -593359198#1 -593359198#0 761628942 593286445#10 593286445#11 593286445#12 593286445#13 593286445#14 593286445#15 593286445#16 593286445#17 761658220#0 761658220#1 761658220#2 761658220#3 761658220#4 62288266 62288346 -456043919 -456043921 -25951184 -1290149174 22917340#0 22917340#1 1290154745#0 1290154745#1 1290154746 1290154740#5 1290154740#6 1290154740#0 1290154740#1 1290154738#0 1290154738#1 1290154738#2 1082630680 66102325#0 66102325#1 1290157512#1 66292221#0 66292221#1 66292221#2 66292221#3 66292221#4 66292221#5 66292221#6 66292221#7 66292221#8 66292221#9 66292221#10 66292221#11 66292221#12 66292221#13 66292221#14 66292221#15 66292221#16 1013952715 22933592#2 22933592#3 22933592#4 22933592#5"/>
    </vehicle>
    <vehicle id="16" type="passenger" depart="8.00">
        <route edges="129117412#0 -593359198#13 -593359198#12 -593359198#11 -593359198#10 -593359198#9 -593359198#8 -593359198#7 -593359198#6 -593359198#5 -593359198#4 -593359198#3 -593359198#2 -593359198#1 -593359198#0 761628942 593286445#10 593286445#11 593286445#12 593286445#13 593286445#14 593286445#15 593286445#16 593286445#17 761658220#0 761658220#1 761658220#2 761658220#3 761658220#4 62288266 62288346 -456043919 -456043921 -25951184 -1290149174 22917340#0 22917340#1 1290154745#0 1290154745#1 1290154746 1290154740#5 1290154740#6 1290154740#0 1290154740#1 1290154738#0 1290154738#1 1290154738#2 66102347#1 66102347#2 66102347#3 66102347#4 66102347#5 66102347#6 66102272 131232308 131294140 131294132#0 584390781#0 584390781#1 584390781#2 1081688740#0 1081688740#1 134907250#1 -134815531#7 -134815521#3 914904189"/>
    </vehicle>
    <vehicle id="17" type="passenger" depart="8.50">
        <route edges="-581494298#0 581494298#0 581494298#1 581494298#2 581494298#3 1337852634"/>
    </vehicle>
    <vehicle id="18" type="passenger" depart="9.00">
        <route edges="374785140#3 -374785140#3 -374785140#2 -374785140#1 -374785140#0 -31232216#1 -31232216#0 761693579 66252743#4 -66252738#6 -66252738#5 -66252738#4 -66252738#3 -66252738#2 -66252738#1 -66252738#0 -1316883072 -22964201 25842789#5 25842789#6 25842789#7 25842789#0 25842789#1 66239973 66297869 1316883070 1271461292#0 1271461292#1 66292218#0 66292218#1 66292218#2 66292218#3 66292218#4 66292218#5 66292218#6 1290162186#1 1290162186#2 1290162185 842246922#0 842246922#1 581494297#0 581494297#1 581494297#2 -1208983187#0 -1208983188 -134764500#5 -134764500#4 -134764500#3 134764500#3"/>
    </vehicle>
    <vehicle id="19" type="passenger" depart="9.50">
        <route edges="501935238#1 501935238#2 501935238#3 501935238#4 -133360769#6 -133360769#5 -133360769#4 -133360769#3 -133360769#2 -133360769#1 -133360769#0 -155629773#25 -155629773#24 206788547#0 206788547#1 206788547#2 206788547#3 206788547#4 206788547#5 428015695#2 461436399#0 1338513915#0"/>
    </vehicle>
    <vehicle id="20" type="passenger" depart="10.00">
        <route edges="155629773#20 -155629773#20 -155629773#19 -155629773#18 -155629773#17 -155629773#16 -155629773#15 -155629773#14 -155629773#13 -155629773#12 -155629773#11 -155629773#10 -155629773#9 -155629773#8 -155629773#7 -155629773#6 -155629773#5 -133360782#15 -133360782#14 -133360782#13 -133360782#12 -133360782#11 -133360782#10 -133360782#9 -133360782#8 -133360782#7 -133360777#3 -133360777#2 -133360777#1 -133360777#0 -761468551 594392948#0 594392948#1 594392948#2 594392948#3 594392948#4 594392948#5 594392948#6 594392948#7 593363265#6 593359212 1294650224 1294650226#4 62288331#0 62288331#1 62288331#2 62288331#3 62288331#4 134498429 -1317835070 -66292236 -456043919 -456043921 -25951184 -1290149174 22917340#0 22917340#1 1290154745#0 1290154745#1 1290154746 1290154740#5 1290154740#6 1290154740#0 1290154740#1 1290154738#0 1290154738#1 1290154738#2 1082630680 66102325#0 66102234#0 66102234#1 66102234#2 66102234#3 -1252508128#2"/>
    </vehicle>
    <vehicle id="21" type="passenger" depart="10.50">
        <route edges="-146858685#0 134779375#1 316397959#0 316397959#1 316397959#2 316397959#3 -131290312#22 -131290312#21 -131290312#20 -131290312#19 -131290312#18 -131290312#17 -131290312#16 -131290312#15 -131290312#14 -131290312#13 -131290312#12 -131290312#11 -131290312#10 -131290312#9 -131290312#8 -131290312#7 -131290312#6 -131290312#5 -131290312#4 -131290312#3 -131290312#2 -131290312#1 -131290312#0 761647347 593286445#3 593286445#4 593286445#5 593286445#6 593286445#7 593286445#8 593286445#9 593286445#10 593286445#11 593286445#12 593286445#13 593286445#14 593286445#15 593286445#16 593286445#17 761658220#0 761658220#1 761658220#2 761658220#3 761658220#4 293066629#0 293066629#1 293066629#2 293066629#3 293066629#4 293066629#5 1294650226#6 1294650226#0 741832184 1054205837#0 1054205837#1 1054205837#2 1054205837#3 1054205837#4 1294647155#0 1294647155#1 1294647154#5 1294647154#0 1294647154#1 1054205839#0 1054205839#1 1054205839#2 1054205839#3 1393551486 1393551484 1054205836#0 1054205836#1 1054205836#2 1054205836#3 293066652 25842789#4 22964201 1316883072 66252738#0 66252738#1 66252738#2 66252738#3 66252738#4 66252738#5 66252738#6 -1013620650 66105414#0 66105414#1 31232216#0 31232216#1 31232216#2 31232216#3 31232216#4 -31232216#4"/>
    </vehicle>
    <vehicle id="22" type="passenger" depart="11.00">
        <route edges="-131290312#11 -131290312#10 -131290312#9 -131290312#8 -131290312#7 -131290312#6 -131290312#5 -131290312#4 -131290312#3 -131290312#2 -131290312#1 -131290312#0 761647347 593286445#3 593286445#4 593286445#5 593286445#6 593286445#7 593286445#8 593286445#9 593286445#10 593286445#11 593286445#12 593286445#13 593286445#14 593286445#15 593286445#16 593286445#17 761658220#0 761658220#1 761658220#2 761658220#3 761658220#4 293066629#0 293066629#1 293066629#2 293066629#3 293066629#4 293066629#5 1294650226#6 1294650226#0 1294650226#1 1294650226#2 1294650225#0 293066632#4 -594392948#7 -594392948#6 293077290#0 293077290#1 293077290#2 293077290#3 293077290#4 293077290#5 293077290#6 293077290#7 293077290#8 293077290#9 293077290#10 293077290#11 293077290#12 293077290#13 293077290#14 293077290#15 66292214 66292225#0 66292225#1 594392934#4 30919046#0 30919046#1 -131290307#23 -131290307#22 -131290307#21 -131290307#20 -131290307#19 -131290307#18 -131290307#17 -131290307#16 -131290307#15 -131290307#14 -131290307#13 -131290307#12 -131290307#11 -131290307#10 -131290307#9 -131290307#8 -131290307#7 -131290307#6 -131290307#5 -131290307#4 -131290307#3 -131290307#2 -131290307#1 -131290307#0 -134917667#19 -134917667#18 -134917667#17 -134917667#16 -134917667#15 -134917667#14 -134917667#13 -134917667#12 -134917667#11 -134917667#10 -134917667#9 -134917667#8 134938594#0 134938594#1 -206788538#4 -206788538#3 -206788538#2"/>
    </vehicle>
    <vehicle id="23" type="passenger" depart="11.50">
        <route edges="-1337850060 -1337850055#3 -1337850055#2 -1337850055#1 -1337850055#0 -134815531#4 -134815531#3 -134815531#2 -134815531#1 392919926#8 392919926#9 392919926#10 1250902798 1250902797 131232304#0 131232304#1 131232304#2 -133939584 66292221#12 66292221#13 66292221#14 66292221#15 66292221#16 1013952715 22933592#2 22933592#3 -133894596#3 -133894596#2 -133894596#1 -133894596#0 1203082893#0 1203082893#1 1326446243#1 1326446244 1082630677#0 1082630677#1 1082630677#2 1070273295 -66292231#4 -66292231#3 -66292231#2 -66292231#1 -66292231#0 -1222166844#1 -1222166844#0 29982697#0 29982697#1 29982697#2 -29982696#2"/>
    </vehicle>
    <vehicle id="24" type="passenger" depart="12.00">
        <route edges="134737655#0 -581494315 581494316 581485241 581483874 22933592#0 22933592#1 22933592#2 22933592#3 22933592#4 22933592#5 22933592#6 22933592#7 22933592#8 22933592#9 22933592#10 22933592#11 22933592#12 22933592#13 22933592#14 22933592#15 22933592#16 22933592#17 22933592#18 22933592#19 22933592#20 22933592#21 1290157512#3 1290157512#4 1290157513 27041813#0 27041813#1 27041813#2 27041813#3 27041813#4 27041813#5 1290149174 25951184 456043921 62289808 62288367 1317835069 293066629#1 293066629#2 293066629#3 293066629#4 293066629#5 1294650226#6 1294650226#0 1294650226#1 1294650226#2 1294650225#0 1294650225#1 593359237 593359232 593359229#0 -593359229#0"/>
    </vehicle>
    <vehicle id="25" type="passenger" depart="12.50">
        <route edges="-501941753#0 593286445#5 593286445#6 593286445#7 593286445#8 593286445#9 593286445#10 593286445#11 593286445#12 593286445#13 593286445#14 593286445#15 593286445#16 593286445#17 761658220#0 761658220#1 761658220#2 761658220#3 761658220#4 293066629#0 293066629#1 293066629#2 293066629#3 293066629#4 293066629#5 1294650226#6 1294650226#0 741832184 1054205837#0 1054205837#1 1054205837#2 1054205837#3 1054205837#4 1294647155#0 1294647155#1 1294647154#5 66117847#0 66117847#1 1322929095 1322929094 -725276155#3 -725276155#2 -725276155#1 -725276155#0 -725276156#1 -725276156#0 -29982697#5 -29982697#4 -29982697#3 -29982697#2 -29982697#1 -29982697#0 1222166844#0 1222166844#1 66292231#0 66292231#1 66292231#2 66292231#3 66292231#4 581494307#0 581494307#1 581494307#2 581494307#3 581494307#4 581494307#5 581494307#6 1203082893#1 1203082893#2 22933595#0 22933595#1 22933595#2 22933595#3 22933595#4 506390714#3 66292230#0 66292230#1 66292230#2 66292230#3 66292230#4 28086234#0 28086234#1 28086234#2 28086234#3 30029983#0 30029983#1 206609423#0 -206609418"/>
    </vehicle>
    <vehicle id="26" type="passenger" depart="13.00">
        <route edges="-206804306#2 206804306#2 206804306#3 -155623297#7 -155623297#6 -155623297#5 -155623297#4 -155623297#3 -155623297#2 -155623297#1 -155623297#0 -1221679597#5 206788486 -130435483#10 -130435483#9 -130435483#8 -130435483#7 -130435483#6 -130435483#5 -130435483#4 -130435483#3 -130435483#2 -131290302#8 -131290302#7 -131290302#6 -131290302#5 -131290302#4 -131290302#3 -131290302#2 -131290302#1 -131290302#0 -134917667#19 -134917667#18 -134917667#17 -134917667#16 -134917667#15 -134917667#14 -134917667#13 -134917667#12 -134917667#11 -134917667#10 -134917667#9 -134917667#8 -134917667#7 -134917667#6 -134917667#5 -134917667#4 -134917667#3 -134917667#2 -134917667#1 -134917667#0 1192638249#1 1192638249#2 1192638249#3 1192638249#4 1192638249#5 1192638249#6 1192638249#7 1192638249#8 1015026833#0 1015026833#1 26901876#0 26901876#1 26901876#2 -134823125#1 -134823125#0 -66105421#10 -66105421#9 -66105421#8 -66105421#7 -66105421#6 -66105421#5 -66105421#4 -66105421#3 -66105421#2 -66105421#1 -66105421#0 66049848#0 66049848#1 241418555#0 241418555#1 241418555#2 241418555#3 66252743#0 66252743#1 66252743#2 66252743#3 66252743#4 42917767#0 42917767#1 701921085 377993518#0 377993518#1 377993518#2 377993518#3 377993518#4 48846706#0 48846706#1 48846706#2 48846706#3 66252749 66252748#0 66252748#1"/>
    </vehicle>
    <vehicle id="27" type="passenger" depart="13.50">
        <route edges="134815523#2 134815523#3 -134815539#1 -134815539#0 -581500436#3 -581500436#2 -581500436#1 -581500436#0 950021101 581482783#2 1317836546#0 1317836546#1 1317836546#2 950021103 633920869 1317841913 1290162184#0 1290162184#1 1290162186#4 1290162186#5 1290162186#6 842246921#0 842246921#1 842246921#2 842246921#3 842246921#4 842246921#5 842246921#6 842246921#7 1095596361 671975741 25842789#3 25842789#4 22964201 1316883072 66252738#0 66252738#1 66252738#2 66252738#3 66252738#4 66252738#5 66252738#6 -1013620650 66105414#0 66105414#1 66105414#2 66105414#3 66105414#4 66105414#5 134026601#0 134026601#1 134026601#2 134026601#3 134026601#4 134026601#5 134026601#6"/>
    </vehicle>
    <vehicle id="28" type="passenger" depart="14.00">
        <route edges="-134779333 134779333 -131290312#37 -131290312#36 -131290312#35 -131290312#34 -131290312#33 -131290312#32 -131290312#31 -131290312#30 -131290312#29 -131290312#28 -131290312#27 -131290312#26 -131290312#25 -131290312#24 -131290312#23 -131290312#22 -131290312#21 -131290312#20 -131290312#19 -131290312#18 -131290312#17 -131290312#16 -131290312#15 -131290312#14 -131290312#13 -131290312#12 -131290312#11 -131290312#10 -131290312#9 -131290312#8 -131290312#7 -131290312#6 -131290312#5 -131290312#4 -131290312#3 -131290312#2 -131290312#1 -131290312#0 761647347 593286445#3 593286445#4 593286445#5 593286445#6 593286445#7 593286445#8 593286445#9 593286445#10 593286445#11 593286445#12 593286445#13 593286445#14 593286445#15 593286445#16 593286445#17 761658220#0 761658220#1 761658220#2 761658220#3 761658220#4 62288266 62288346 -456043919 -456043921 -25951184 -1290149174 22917340#0 22917340#1 1290154745#0 1290154745#1 1290154746 1290154740#5 1290154740#6 1290154740#0 1290154740#1 1290154738#0 1290154738#1 1290154738#2 1082630680 66102325#0 66102325#1 1290157512#1 66292221#0 66292221#1 66292221#2 66292221#3 66292221#4 1015055210 22933592#16 22933592#17 22933592#18 22933592#19"/>
    </vehicle>
    <vehicle id="29" type="passenger" depart="14.50">
        <route edges="-134027624#6 -134027624#5 -134027628#3 -134027628#2 -134027628#1 -134027628#0 1122575004#0 1122575004#1 1122575001#1 1122575001#2 30919010#0 30919010#1 -1207660675#4 -1207660675#3 -1207660675#2 -1207660675#1 -1207660675#0 134096038 910309332#0 910309332#1 910309332#2 134949348#0 993568904 -66105421#6"/>
    </vehicle>
    <vehicle id="30" type="passenger" depart="15.00">
        <route edges="993560242#0 993560242#1 134815568#0 134815568#1 134815568#2 134815568#3 -134815595#4 -134815595#3 -134815595#2 -134815595#1 -134815585#3 -134815585#2 -134815534 134815599#1"/>
    </vehicle>
    <vehicle id="31" type="passenger" depart="15.50">
        <route edges="130435483#7 -130435483#7 -130435483#6 -130435483#5 -130435483#4 -130435483#3 -130435483#2 -130435483#1 -130435483#0 133360769#6 133360769#7 133360769#8 1062095070 594392935#19 -29980785#9 -29980785#8 -29980785#7 -293077290#12 -293077290#11 -293077290#10 -293077290#9 -293077290#8 -293077290#7 -293077290#6 -293077290#5 -293077290#4 -293077290#3 -293077290#2 -293077290#1 -293077290#0 594392948#6 594392948#7 -293066632#4 -293066632#3 -293066632#2 -293066632#1 -293066632#0 1294647153#0 1294647153#1 1294647155#1 1294647154#5 66117847#0 66117847#1 1322929095 1322929094 -725276155#3 -725276155#2 -725276155#1 -725276155#0 -725276156#1 -725276156#0 -29982697#5 -29982697#4 -29982697#3 -29982697#2 -29982697#1 -29982697#0 1222166844#0 1222166844#1 66292231#0 66292231#1 66292231#2 66292231#3 66292231#4 581494307#0 581494307#1 581494307#2 581494307#3 581494307#4 581494307#5 581494307#6 581494310#0 581494310#1 581494310#2 581494310#3 581494310#4 581494310#5 581494310#6 134737655#0 134737655#1 134737655#2 134737655#3 455844790 134779299 1317841915#0 1317841915#1 455844792 134779302#0 134779302#1 134779302#2 134779302#3 1317836547 155611911 26749323 26640439 1317836549 1317836551 155611919#0"/>
    </vehicle>
    <vehicle id="32" type="passenger" depart="16.00">
        <route edges="405629540#2 1341531136#5 1341531136#6 1341531136#7 1095596361 671975741 25842789#3 25842789#4 25842789#5 66058394 66297870 -1316883071 -241418557#2 -241418557#1 -241418557#0 -26321627 1013948616 29984343 908257535#0 908257535#1 908257535#2 908257535#3 908257535#4 29994511#0 29994511#1 29994511#2 1015184557#0 1015184557#1 1015184557#2 29980784#0 29980784#1 29980784#2 29980784#3 29980784#4 29980802#5 29980802#6"/>
    </vehicle>
    <vehicle id="33" type="passenger" depart="16.50">
        <route edges="-155611933#1 -155611933#0 -950021102 950021101 581482783#2 1317836546#0 1317836546#1 1317836546#2 1317841916 1317841917 581500012#0 581500012#1 581500012#2 581494316 581485241 581483874 22933592#0 22933592#1 22933592#2 22933592#3 22933592#4 22933592#5 22933592#6 22933592#7 22933592#8 22933592#9 22933592#10 22933592#11 22933592#12 22933592#13 22933592#14 22933592#15 22933592#16 22933592#17 22933592#18 22933592#19 22933592#20 22933592#21 1290157512#3 1290157512#4 1290157513 27041813#0 27041813#1 27041813#2 27041813#3 27041813#4 27041813#5 1290149174 25951184 456043921 456043919 66292236 1317835070 62289757 293066630#0 293066630#1 593359206#0 593359206#1 1208992466#0 1208992466#1 -1208992466#1 -1208992466#0"/>
    </vehicle>
    <vehicle id="34" type="passenger" depart="17.00">
        <route edges="-306128417 129124115#1 129124115#2 -131290312#1 -131290312#0 761647347 593286445#3 593286445#4 593286445#5 593286445#6 593286445#7 593286445#8 593286445#9 593286445#10 593286445#11 593286445#12 593286445#13 593286445#14 593286445#15 593286445#16 593286445#17 761658220#0 761658220#1 761658220#2 761658220#3 761658220#4 293066629#0 293066629#1 293066629#2 293066629#3 293066629#4 293066629#5 1294650226#6 1294650226#0 1294650226#1 1294650226#2 1294650225#0 1294650225#1 593359237 593359232 593359226 593359220 593359218 593359215#0 593359215#1 1015184558 1015184556 1118327653#0 1118327653#1 1015184557#0 -29980785#1"/>
    </vehicle>
    <vehicle id="35" type="passenger" depart="17.50">
        <route edges="-134917709#0 -134917705#0 131290307#23 30919046#2 30919046#3 -1062095071 -29980785#9 -29980785#8 -29980785#7 -293077290#12 -293077290#11 -293077290#10 -293077290#9 -293077290#8 -293077290#7 -293077290#6 -293077290#5 -293077290#4 -293077290#3 -293077290#2 -293077290#1 -293077290#0 594392948#6 594392948#7 -293066632#4 -293066632#3 -293066632#2 -293066632#1 -293066632#0 1294647153#0 1294647153#1 1294647155#1 1294647154#5 66117847#0 66117847#1 1322929095 1322929094 -725276155#3 -725276155#2 -725276155#1 -725276155#0 -725276156#1 -725276156#0 -29982697#5 -29982697#4 -29982697#3 -29982697#2 -29982697#1 -29982697#0 1222166844#0 1222166844#1 66292231#0 66292231#1 66292231#2 66292231#3"/>
    </vehicle>
    <vehicle id="36" type="passenger" depart="18.00">